*SRC=DDZ9678;DDZ9678;Diodes;Zener <=10V; 1.80V  0.500W   DIODES ZENER DIODE
*SYM=HZEN
.SUBCKT DDZ9678  1 2
*        Terminals    A   K
D1 1 2 DF
DZ 3 1 DR
VZ 2 3 0.08
.MODEL DF D ( IS=114p RS=3.13 N=1.10
+ CJO=145p VJ=0.750 M=0.330 TT=50.1n )
.MODEL DR D ( IS=17n RS=8.5 N=8.5 )
.ENDS