.subckt transformer1 in1 in2 in3 out1 out2 Lin=3m Lout=212m Rin=1 Rout=1
* inductances
Li1 in1 intin1 {Lin}
Li2 in3 intin2 {Lin}
Lo1 out1 intou1 {Lout}
Lo2 out2 intou2 {Lout}

* coupling factors
K1 Li1 Lo1 1
K2 Li2 Lo2 1

* series resistances

Ri1 intin1 in2 {Rin}
Ri2 intin2 in2 {Rin}

Ro intou1 intou2 {Rout}

.ends
