.subckt transformer1 in1 in2 in3 out1 out2 Lin=3m Lout=212m Rin=1 Rout=1
* inductances
Li1 in1 intin1 {Lin}
Li2 intin2 in3 {Lin}
Lo out1 intou {Lout}

* coupling factors
K1 Li1 Lo 1
K2 Li2 Lo 1
K3 Li1 Li2 1

* series resistances

Ri1 intin1 in2 {Rin}
Ri2 intin2 in2 {Rin}

Ro intou out2 {Rout}

.ends
