**$ENCRYPTED_LIB
**$INTERFACE
*$
* TLV70215, TLV702-Q1(1.5V) and TLV70315
*****************************************************************************
* (C) Copyright 2017, 2012 Texas Instruments Incorporated. All rights reserved.
*****************************************************************************
** This model is designed as an aid for customers of Texas Instruments.
** TI and its licensors and suppliers make no warranties, either expressed
** or implied, with respect to this model, including the warranties of
** merchantability or fitness for a particular purpose. The model is
** provided solely on an "as is" basis. The entire risk as to its quality
** and performance is with the customer.
*****************************************************************************
*
* This model is subject to change without notice. Texas Instruments
* Incorporated is not responsible for updating this model.
*
*****************************************************************************
** Released by: WEBENCH Design Center, Texas Instruments Inc.
* Part: TLV70215, TLV702-Q1(1.5V) and TLV70315
* Date: 30MAR2017 
* Model Type: Transient
* Simulator: PSPICE
* Simulator Version: 16.2.0.p001
* EVM Order Number: 
* EVM Users Guide: 
* Datasheet: TLV702-SLVSAG6C -SEPTEMBER 2010-REVISED MARCH 2015
*            TLV702Q1-SLVSC35B -AUGUST 2013-REVISED JUNE 2015
*            TLV703-SBVS305 –AUGUST 2016-REVISED JANUARY 2017
*
* Model Version: Final 1.10
*
*****************************************************************************
*
* Updates:
*
* Final 1.10
* Release to Web
* <Made below changes to the model>
* 1. Associated project file TLV702 with TLV702-Q1/TLV703.
* 2. Output is isolated with input when EN voltage goes to zero.
* 
*
* Final 1.00
* Release to Web
*
*****************************************************************************
*
* Model Usage Notes:
*
* 1. The following features have been modeled
*      a. Start-up time
*      b. PSSR
*      c. Enable/VIN shutdown
*      d. Load and line regulation
*      e. Load and line transients
*      f. Internal current limit
*      h. Model supports inverting topology
*      
* 2. Temperature effects & Ground/shutdown/quiescent current have not been modeled
*****************************************************************************
.SUBCKT TLV70215_TRANS IN EN OUT GND NC
$CDNENCSTART
eee8c5c7a2bc4b01f045f303678664e7916da0bae22e8cb0bba041dd67c69ce448ea70148a9ac1670c8926c1ac5057c8ccfcd77bf87ca9dcc822b75f9f1c08d6
ddf70eae3b592905a60fd3951de4fe94f57a7945e58a49a0e8aed3637f051aee504a2c32bc8a735c86be41b07e4a1633fd20241967a998772a8d5abb5af92f25
904e90e8e5b2fbfdf45310c19b6b8ee5ccfc82a9316bed11d37750f413b01fab3a7afb3043696a9119946548f3937cf2e26374992da83e237643eaa319704e01
6f9764b062a61846df94e35e4efbe801a81b64b03c55448366eaeb9fc4cc8ae1d7fdd13664b19a3dd10effc0b309c9aaba5dc28da8f062889681fe5250eadcf5
c9df73872fc60450d604f43b28faebe638bc2f81989a62baf3d3c723abca0a7c353a02b4ae2c4764300a81c510c7b5cffc068633f3a30e0082ec4c12091b40c3
8f10d309634521e5b9d15c5be4e02d4918754e13dba8dbd33fcc20578536d17ea344993c9d71a2627f40f2c575ab748f34a69a61bf15721f71b3d971cfabe105
394197bedeb77a71acab1d0766be876c4ac189d3e58f40143a21ac6e0875308ca344993c9d71a2627f40f2c575ab748f34a69a61bf15721f71b3d971cfabe105
d5bfd4b79d522d84c83805c2174809e84ac189d3e58f40140ed5b5872009b2bd569a3040930e4178df9d72ab36c8577b19946548f3937cf29cd51a2cf72c0279
3bdfb3bcf8540f57663733dbd667a43f65b6609119040190e55ed9ffd84c671a9971635f91f9a65e64379bc880f71f2fbf73620317a0a6ea4c37c4517eef0810
0be1bd08545f4ec3706b807646b80371d6b573c4fef92654bdbd52ddbaa047e45884190317e1be412d9e7959a8ef6fe459fc0b6db954e1514813bddcc08fa6f5
6bc6bcfc0cf717f3706b807646b803717dcd3f16f2f4a72c970368879395e64ff8a6b0522a2e078a9971635f91f9a65e64379bc880f71f2f0f2cfcfe22dfbb14
e9f419af62bfe95eb585b96681e0ca9b9b9bd1d2bc36ec2c3bd61b6559f83ee64d648e7e4b6350de3f298ee8a6fe86b9e4678a26f6a0ff359eba10bf8aa7ff98
722b5288ebd2653886c8c090558c052f504a2c32bc8a735c86be41b07e4a1633fd20241967a99877d06bb18c5e6bda56e5c24f7307849098f59eb2526497fda1
e9f419af62bfe95ec12e63f53fc8b6c7080dbdc2111b05acc90ee3888cb6836bce5ec34e6f8ad1ca143d07475832cac491eae8c95ebba509ad10a7f8687c51a2
d7534371b91731a88e6947734ef792b99971635f91f9a65e64379bc880f71f2fbf73620317a0a6ea024968029f39a7b8d74394f6c7b05d81e63b5a8db01c65c1
470dd7f55c073fcd55136b92d0559ec4a0a56ede2a02c60b7f40f2c575ab748f34a69a61bf15721f80d801907297fae3a8f25fca2f5556d5f31b0c806b67f86a
1e36f10390632b7b706b807646b80371989ff71a450f2d4f10323e3e4f03d8455a3bd16bf5766b7522c2ca6031933b14abdc18ad19c6370052dba193271012d0
bee3b1535c1d5d6ba344993c9d71a2627f40f2c575ab748f34a69a61bf15721f80d801907297fae3a8f25fca2f5556d5dcc58310bc82f1c2db0ef7842f650b59
22cc75479b3d980a706b807646b8037180a93b86ccc5ef96b81e4c4d969f1dd2ca3bf768e25b6b29ac6a06391c26b0c6d76c198cda145e6ac822b75f9f1c08d6
1ac3d64a7ec42565706b807646b80371fafbb00062b4cc8e5a87424d006993fbf4ff3965adf04b6de23d827c2a5cdd2fc6d7e9cc59603bc06653698ee93a71da
fa68f365a2a9a9bbc36608cb6cd6e49e2d9e7959a8ef6fe459fc0b6db954e15176c4f253f706289eb49ab989a122e7cc35af9c8113933c38db0d33d0edc6da52
cdaa385411811e27bfd81d659a09e4b32637e9cac2aa5cea2cecad1ebf804c4b2473511ee33aa3b919946548f3937cf2e26374992da83e237643eaa319704e01
82d2e7992b7a58af706b807646b803716eccaf694fc8cbd82a6b3ce54a7c1865bbd79caeedb761806a6f9086b6fc6336830a28e9c89842404d5747a08c0fbd42
a286ab8191b3300723abc7bcadb5e55e504a2c32bc8a735c86be41b07e4a1633fd20241967a99877d06bb18c5e6bda56e5c24f7307849098f59eb2526497fda1
cdaa385411811e27bfd81d659a09e4b32637e9cac2aa5cea2cecad1ebf804c4b2473511ee33aa3b919946548f3937cf2e26374992da83e237643eaa319704e01
9d3782a54af54f6d706b807646b80371989ff71a450f2d4f04c46ff96d13d824ce5ec34e6f8ad1caf93f7b40a8e2bd31d4f8ffff932175e8766281cdbdda4bf0
54653036f112a7e5706b807646b80371989ff71a450f2d4f43ff7de80bac908e0b2915792e5120cdfb73a183a33c1636fa5c51fb57f672080080db0f030a4c21
f28257b2a3730294706b807646b80371a847f3fb487c186c2e10b6f40aa50ec7d607087dcfdaea299971635f91f9a65e64379bc880f71f2f0f2cfcfe22dfbb14
a5d158a0fc11634f706b807646b8037180a93b86ccc5ef96dcdb6b3481be0e893c0a87748563a108504a2c32bc8a735c86be41b07e4a1633479ef36eb8ffe288
6dcc2999c2dfe559706b807646b80371989ff71a450f2d4faccc1413efbd7221320519e3e05870089971635f91f9a65e64379bc880f71f2f0f2cfcfe22dfbb14
e9f419af62bfe95ebc27f931268b4061080dbdc2111b05ac604cf42e15ed1a70ce5ec34e6f8ad1cac13ffc8b6ae5cb2e4c21dace8c0b77c7c5edc8eda06110ea
5d078000650a8fa5907b99823f1386611647afe0495b1ace45b47fa4a900dd80cb2bf4310c3807ed9971635f91f9a65e64379bc880f71f2f0f2cfcfe22dfbb14
a3ce589fda26bc39706b807646b80371989ff71a450f2d4f92db5467decb5e577eb1547bdfb9fe93a147194f3a3bf6c03a7afb3043696a9165f3562c64fbb2cc
69ff18044fae7c89706b807646b803712a6b3ce54a7c1865150a1d6731f530eccddf1b68ca30546aba5dc28da8f06288fb98a3e0fe0d119078c908977b060013
e9f419af62bfe95ecc0121b5e20e2076080dbdc2111b05acde91212396735d2ace5ec34e6f8ad1caf93f7b40a8e2bd3108c0f85e1bde808a4cf705d5d584b10c
0a74212461f65cb976d50cd002ed44083e433ab1299f423f6954020319aab50f17a4c595173f9f7b95706980f1126351060b256480ff8005a73e0faeacdf64f1
bc8ee2299b220803beda7935c8aeca8d90d894e251243331da537c18df85a88cba5dc28da8f06288fb98a3e0fe0d1190c64308bfde5ca9052244d2ce6fe5710d
5aa875be979324eb706b807646b803717dcd3f16f2f4a72c4f9e87021f8736339dc49094d5d0f85c504a2c32bc8a735c86be41b07e4a1633479ef36eb8ffe288
9f6651f33a632d5f706b807646b80371436977a222c035afc11f1e9bbe83eef3b325bf5f7b5285010d7876bdde15b19ef979235277d631d6b3ac416740e0cb21
d0bd7491b680ea8fee30068ae5abed7ec52d8e7d976bf6e281bdcd6b9f0641df195651cec03796997b71a523e2785db56653fc4efb8743ee5eaf8e4aa56b656f
1f06d47ef7462abc17bf91eb1202ac6fc9760b324602c4e60f3b0c31aeea410ae72389b175685ad9fc068633f3a30e00b0d0803993593779ed32eac1b38aff54
b67df0d3ab862a12706b807646b80371a847f3fb487c186c7546fb5c8c4298ecd607087dcfdaea299971635f91f9a65e64379bc880f71f2f0f2cfcfe22dfbb14
560bc4dfcba57a2c1b335ff6669122156e7c4bdf8b04a5238492e52ca99071374791d9b7e0db60db67824ca0788a95e7fc068633f3a30e0082ec4c12091b40c3
5f41a7a4794b53672c4cbab029189320d042b92eba138a7c9f7df7e1d8537137dc26028ef70590f4cf5e9389f2a48e3c19946548f3937cf29cd51a2cf72c0279
afe317ae10e981551acdef34d66cba5ceeb030f397adc88b82b15a189f8b23d49971635f91f9a65e64379bc880f71f2fbf73620317a0a6ea4c37c4517eef0810
abc05a84349f7fe526c880f485e2ca342a3c106b023313d28ada37d8d5c7cf52a344993c9d71a2627f40f2c575ab748f34a69a61bf15721f71b3d971cfabe105
2f646e0e8d7ca9fb860341bb47536c89d3c6f4cd3b9e53669f7df7e1d853713798709113e7ea04d2cf5e9389f2a48e3c19946548f3937cf29cd51a2cf72c0279
3b59b36ad64eb586dc5a1b22284dea7feeb030f397adc88b80a1a2d78025e2e78c0fab00abef36a9fc068633f3a30e00b0d0803993593779ed32eac1b38aff54
93d3808648446fd760c210771409cb2ee0b5dbf27fe7bf8f28012d945d685fb41a5fda8e06c24aed9d7490c02ce54ea221c3ba3d5ce80191c5db7db6515a3671
3d438685e8d81df0dc171ccd3489847ae0b5dbf27fe7bf8ff5eb8214881fcb5247c3a4c9d25bc19d6a947f37058ebea1623e3953fd2b8134454fab0d9f484861
b0eb42ca922cce592fbfcc2b872ff94601544361d34b74c3749d13634498f34b68c3b9926e0df71c666e0159dc63b9a90733018bb86853514549675fbefb5cdc
878ea891db46c1cd9b17b472ccd6ffe75573dce62d27542551199185c0f3412ae39eba72324834fb82b70041e56c2f4e36501138a3da11e50c149ffc1e490b6b
a010d171e62e6bf0004a5cb6d3aeba5fdcecb3322f714f204d83da6a4bdf9db092f71ab8c0ac6089cec151539cfd5e02bd48eadb972f21aee639ad78325f0416
9afa1f10a7f457ea15f60e4ce62d5ce4268ffed78a3448457725dab847e703f63d1e66e16b42006a5573dce62d27542551199185c0f3412a4b72ec900ab93ae0
e0bee0f3fadd672460c210771409cb2ee0b5dbf27fe7bf8f1f2fb368fccc6be125d40f775a64a0940cafcb7cfe652d94661c6c5a6c3f664f3e69a059fcb3a10f
705d459f50f7a08c15f60e4ce62d5ce450328f117d4923488f71e7553e8063983ecfb4feaf868f20a1763f15eb900425d6ec2a158012627f7aa33ae62a5b159a
b90e0c5fe970b38760c210771409cb2e9bb0d004119ec15e777d4715d3c53dd141d49fca179af79dbaee13068f3f98a99afcf3acd5d40fc49e6485856c3e9c09
48a94d11d238250fc83805c2174809e865b6609119040190420b9c924e2d614bd7d81d9271ce0d8e6b38581a0627e062623e3953fd2b8134454fab0d9f484861
bedb4c285028d3890abfc569c2f155648a39127aa9f8cf3378b54ce720b1001e49a68f8907b4eefc8895a73e30cdf4e1505f52faf5f40bd2ec5b538345823a7b
062e5f2e0baf1b671b335ff666912215f75aa0cc40f2e4a7a434cb3c571aa35fcf8e67772046bd39a15c6eef6af2c72e694ed948a38ce2034f95793c11345280
615a28c46d72374094fbbbfac28a5c5c164c9e232793a5b063d9d49533be6e3a004a5cb6d3aeba5fdcecb3322f714f204d83da6a4bdf9db030df9790b99cd200
6a30044ee8eb8b671b335ff6669122150e68485587411f9a8492e52ca99071375bebda023e3dc91e71802e7452fd18b25e22f9a2b30b182ff6f806d9a1156552
717cdf892ff6b6ffdaf99020d108932b3357e1136fb29bbd661c6c5a6c3f664f647f727a2a2bfee13e64583adf22638a4a8dc3e53bafa55b8bdd374b442bf445
c43ca65fb3926f3ba60fd3951de4fe94e0b5dbf27fe7bf8f21602b10c0cff4358c0fab00abef36a9c56ec05afe8a9bf9668a8a96b5bed2f0108936225a826a48
2cfd781695004e38e540552e7573e568105dbcb0d0df9d81d99604f256075295b60e93de2dc2ed1d2408eb03932f6c54eca477b72c27a1e49559b187edc56f27
c343eb4092c22d41b1c7c334b7319ef5004a5cb6d3aeba5fdcecb3322f714f204d83da6a4bdf9db092f71ab8c0ac6089cec151539cfd5e021a1ef91ad4e9a199
62de40c9486cbee406c0ad11a8a16d093010e01794bfa60b9778e09114237562a8e82257c128c270afcdba7124294cd0647f727a2a2bfee1ed052678563f6a5a
$CDNENCFINISH
.ENDS TLV70215_TRANS
*$
.subckt TLV70215_F1 1 2 3 4  
$CDNENCSTART
eee8c5c7a2bc4b01f045f303678664e7916da0bae22e8cb0bba041dd67c69ce448ea70148a9ac1670c8926c1ac5057c8ccfcd77bf87ca9dc816a4ef13ee63b90
ae601cf82fbefc0c31820e631d1d1d74872d6da6e74e75ee623e3953fd2b813473317f2a789a67e09807a11ff1f5304017f256d3cc244090d5de56fd167dde8b
969b68e4450fa8bd6f31076d2b37e96bec1dbf48f1a07bfb9d7490c02ce54ea221c3ba3d5ce8019198c3e351c99153222a82e070243f147405b5fdac9ff55197
$CDNENCFINISH
.ends TLV70215_F1
*$
.subckt TLV70215_S6 1 2 3 4  
$CDNENCSTART
eee8c5c7a2bc4b01f045f303678664e7916da0bae22e8cb0bba041dd67c69ce448ea70148a9ac1670c8926c1ac5057c8ccfcd77bf87ca9dc816a4ef13ee63b90
984f32a07473fb7c31820e631d1d1d74ef1e214e65ee9ca6623e3953fd2b813473317f2a789a67e09807a11ff1f5304017f256d3cc244090d5de56fd167dde8b
dd1eb1f7fd6960a06f31076d2b37e96b3f1030bbca8576c39d7490c02ce54ea221c3ba3d5ce8019198c3e351c99153222a82e070243f147405b5fdac9ff55197
1e7e75f62a07f7b1bbcb463bf6330e44dd4a5f3ed5996b330ffb76e2ddf4497b2596d65fe0df484d8e5e1fe45d9e77f16da4757f7911f35399ef05dcb2404e62
$CDNENCFINISH
.ends TLV70215_S6
*$
.subckt TLV70215_H1 1 2 3 4  
$CDNENCSTART
eee8c5c7a2bc4b01f045f303678664e7916da0bae22e8cb0bba041dd67c69ce448ea70148a9ac1670c8926c1ac5057c8ccfcd77bf87ca9dc816a4ef13ee63b90
2abee8045ea05af631820e631d1d1d745631fdfe31f523f9623e3953fd2b813473317f2a789a67e09807a11ff1f5304017f256d3cc244090d5de56fd167dde8b
32ee4cbc53dd07ef6f31076d2b37e96bec1dbf48f1a07bfb9d7490c02ce54ea221c3ba3d5ce8019198c3e351c99153222a82e070243f147405b5fdac9ff55197
$CDNENCFINISH
.ends TLV70215_H1
*$
.subckt TLV70215_S1 1 2 3 4  
$CDNENCSTART
eee8c5c7a2bc4b01f045f303678664e7916da0bae22e8cb0bba041dd67c69ce448ea70148a9ac1670c8926c1ac5057c8ccfcd77bf87ca9dc816a4ef13ee63b90
44f117741689d59131820e631d1d1d749e35700c7913e939623e3953fd2b813473317f2a789a67e09807a11ff1f5304017f256d3cc244090d5de56fd167dde8b
3c76beba9b808c126f31076d2b37e96b3f1030bbca8576c39d7490c02ce54ea221c3ba3d5ce8019198c3e351c99153222a82e070243f147405b5fdac9ff55197
1e7e75f62a07f7b1bbcb463bf6330e447b3ba2fd65dbf9050ffb76e2ddf4497bf8c82269d01ef65b088a7a198d4d42bbbedd4f0e0429e49ff47cd95c1847d498
$CDNENCFINISH
.ends TLV70215_S1
*$
*********************************///////////
.SUBCKT COMPHYS_BASIC_GEN INP INM HYS OUT PARAMS: VDD=1 VSS=0 VTHRESH=0.5	
$CDNENCSTART
eee8c5c7a2bc4b01f045f303678664e7916da0bae22e8cb0bba041dd67c69ce448ea70148a9ac1670c8926c1ac5057c8ccfcd77bf87ca9dc816a4ef13ee63b90
9132b7121104d4358be44c41ab888f41b6e3a1568843d8670024d804c4775bfd51199185c0f3412ae39eba72324834fb82b70041e56c2f4e29812242414e161d
70d49a25931fcad5af5f0f227a33dfc56b574213c15e8d8904d73209bd6cb354e07469d76c73f504727902e71a3e75d8bb77e20fe987edd8d38aff4e12555a5d
d1579de13894cc53749d13634498f34b2814ec203481f38f6485690991963efc688dc2cfc32ec3a9609956094a2f05290f82827fc36822f0405d560afe35fad1
c985c90e830fff9457e2c5aa80851370505f52faf5f40bd239b6083ebdf38f80553be0d454cb7bd01a8bc34df588a76e753d8e7f672e28bd00e93ad546b8738e
1fdb31c906bbcd7763285b2908224391647f727a2a2bfee13e64583adf22638a4a8dc3e53bafa55b37bf5a5c8c5ca812623a6e316b764a9b6eb9eb2c1ee3c8fa
13142c038a62aa150aa66cfdd7abddd7623e3953fd2b813473317f2a789a67e09807a11ff1f5304017f256d3cc244090d1f20d4c0847537f8ba196e421f676f3
$CDNENCFINISH
.ENDS COMPHYS_BASIC_GEN
*$
.subckt d_d 1 2
$CDNENCSTART
eee8c5c7a2bc4b01f045f303678664e7916da0bae22e8cb0bba041dd67c69ce448ea70148a9ac1670c8926c1ac5057c8ccfcd77bf87ca9dc816a4ef13ee63b90
1580a2664af5c9b79ba351c972f8011b647f727a2a2bfee13e64583adf22638a4a8dc3e53bafa55b37bf5a5c8c5ca812623a6e316b764a9b6eb9eb2c1ee3c8fa
0697746efb67a3a37eef396dcc27bc379d7490c02ce54ea221c3ba3d5ce8019198c3e351c99153222a82e070243f147482226c110b85de99249a90542b211e8c
f7a854a98d732f8b65b706867a9136e69d7490c02ce54ea221c3ba3d5ce8019198c3e351c99153222a82e070243f147482226c110b85de99249a90542b211e8c
017be230402273590024d804c4775bfd51199185c0f3412ae39eba72324834fb82b70041e56c2f4e36501138a3da11e5a8d343e0f537703f2dff70e94fdc0de7
39c84b0c9f72e0078e024cbd033ee0af9d7490c02ce54ea221c3ba3d5ce8019198c3e351c99153222a82e070243f147482226c110b85de99249a90542b211e8c
$CDNENCFINISH
.ends d_d
*$
