**$ENCRYPTED_LIB
**$INTERFACE
* PSpice Model Editor - Version 16.2.0
*$
* TLV70233, TLV702-Q1(3.3V) and TLV70333
*****************************************************************************
* (C) Copyright 2017,2011 Texas Instruments Incorporated. All rights reserved.
*****************************************************************************
** This model is designed as an aid for customers of Texas Instruments.
** TI and its licensors and suppliers make no warranties, either expressed
** or implied, with respect to this model, including the warranties of
** merchantability or fitness for a particular purpose. The model is
** provided solely on an "as is" basis. The entire risk as to its quality
** and performance is with the customer.
*****************************************************************************
*
* This model is subject to change without notice. Texas Instruments
* Incorporated is not responsible for updating this model.
*
*****************************************************************************
** Released by: WEBENCH Design Center, Texas Instruments Inc.
* Part: TLV70233, TLV702-Q1(3.3V) and TLV70333
* Date: 15MAR2017
* Model Type: Transient
* Simulator: PSPICE
* Simulator Version: 16.2.0.p001
* EVM Order Number: 
* EVM Users Guide: 
* Datasheet: TLV702-SLVSAG6C-SEPTEMBER 2010-REVISED MARCH 2015
*            TLV702Q1-SLVSC35BAUGUST 2013REVISED JUNE 2015
*            TLV703-SBVS305 AUGUST 2016REVISED JANUARY 2017
* Model Version: Final 1.10
*
*****************************************************************************
*
* Updates:
*
* Final 1.10
* Release to Web
*<Made below changes to the model>
* 1. Associated TLV702-project file with TLV703/TLV702-Q1.
* 2. Output is isolated with input when EN voltage goes to zero.
* 3. Dropout is made dependent on input voltage.
*
* Final 1.00
* Release to Web
*
*****************************************************************************
*
* Model Usage Notes:
*
* 1. The following features have been modeled
*      a. Start-up time
*      b. PSSR
*      c. Enable/VIN shutdown
*      d. Load and line regulation
*      e. Load and Line transients
*      f. Internal current limit
*      h. Model supports inverting topology.
*      
* 2. Temperature effects & Ground/shutdown/quiescent current have not been modeled.
* 
*****************************************************************************
.SUBCKT TLV70233_TRANS IN EN OUT GND NC
$CDNENCSTART
eee8c5c7a2bc4b01f045f303678664e7916da0bae22e8cb0bba041dd67c69ce448ea70148a9ac1670c8926c1ac5057c8ccfcd77bf87ca9dcb1d117eebb09506e
ddf70eae3b592905a60fd3951de4fe94f57a7945e58a49a0e8aed3637f051aee19f84f473e80c75058d4ae77a413986cbdbb35d97976cf2f3075aac1332aa3f6
904e90e8e5b2fbfdf45310c19b6b8ee5ccfc82a9316bed11d37750f413b01fab3a7afb3043696a9104d5e08feb485cf595be1dded0b37741f70d49e709d518a7
6f9764b062a61846df94e35e4efbe801a81b64b03c55448366eaeb9fc4cc8ae1d7fdd13664b19a3dd10effc0b309c9aaabe0d302f64b885c346e2b07116fe219
c9df73872fc60450d604f43b28faebe638bc2f81989a62baf3d3c723abca0a7c353a02b4ae2c47647307a14323b8dbf8445e85612d4df7538ff05a55a908034f
8f10d309634521e5b9d15c5be4e02d4918754e13dba8dbd33fcc20578536d17e3d6feedeaf07bff2aea6208b1fce888110d934b0be4484bbecef15e38fc4b6c7
394197bedeb77a71acab1d0766be876c4ac189d3e58f4014e2fe2db151d32a2a661c6c5a6c3f664f04d5e08feb485cf595be1dded0b37741f70d49e709d518a7
d5bfd4b79d522d84c83805c2174809e84ac189d3e58f40140ed5b5872009b2bd3957c1b5936166b5df9d72ab36c8577b04d5e08feb485cf54ecb6937ef3e15a9
afe317ae10e981551acdef34d66cba5cf796966c02b7324c8ba27eff3379fc8d3a5c212f5c402ed0aef99e475c021daedbdec439e06d41106b40e7a4b1b52d37
3bdfb3bcf8540f57663733dbd667a43f65b6609119040190e55ed9ffd84c671aaef99e475c021daedbdec439e06d4110544ec97afa616783dd846b5cace5dd66
0be1bd08545f4ec3706b807646b80371d6b573c4fef92654bdbd52ddbaa047e45884190317e1be41bfffa06df6368d8dc0920c8bd1e2ec9d9063e6a92f2e24ef
6bc6bcfc0cf717f3706b807646b803717dcd3f16f2f4a72c970368879395e64ff8a6b0522a2e078aaef99e475c021daedbdec439e06d41106b40e7a4b1b52d37
e9f419af62bfe95ebf230db17611f82f9b9bd1d2bc36ec2c3bd61b6559f83ee64d648e7e4b6350de3f298ee8a6fe86b9e4678a26f6a0ff359eba10bf8aa7ff98
722b5288ebd2653886c8c090558c052f19f84f473e80c75058d4ae77a413986cbdbb35d97976cf2f5f47ae39e87f5b69e9a96117b17fb9d61bbca63caa201d95
d0f9d3cd20853e06706b807646b80371436977a222c035afc11f1e9bbe83eef3b325bf5f7b5285010d7876bdde15b19ef979235277d631d6c9b12de3611a4cd8
d0bd7491b680ea8fee30068ae5abed7ec52d8e7d976bf6e281bdcd6b9f0641df195651cec03796997b71a523e2785db56653fc4efb8743ee5eaf8e4aa56b656f
1f06d47ef7462abc17bf91eb1202ac6fc9760b324602c4e60f3b0c31aeea410ae72389b175685ad9445e85612d4df7530e2d1b4aa74704b3b09a97ac043ca9e2
e9f419af62bfe95ec12e63f53fc8b6c7080dbdc2111b05acc90ee3888cb6836bce5ec34e6f8ad1ca143d07475832cac491eae8c95ebba509ad10a7f8687c51a2
d7534371b91731a88e6947734ef792b9aef99e475c021daedbdec439e06d4110544ec97afa616783c7e7a21d90b404c24078ed5aeb4f7171d9aba9b5e26e99d1
470dd7f55c073fcd55136b92d0559ec47a11079909db2c10aea6208b1fce888110d934b0be4484bb74a417b9c2613570d94d38fcd43b6433d21d5c35e7e4e600
1e36f10390632b7b706b807646b80371989ff71a450f2d4f10323e3e4f03d8455a3bd16bf5766b7522c2ca6031933b14abdc18ad19c6370052dba193271012d0
bee3b1535c1d5d6b3d6feedeaf07bff2aea6208b1fce888110d934b0be4484bb74a417b9c2613570d94d38fcd43b643327f02c8d59f28fc84ea9891707bca9c1
22cc75479b3d980a706b807646b8037180a93b86ccc5ef96b81e4c4d969f1dd2ca3bf768e25b6b29ac6a06391c26b0c6d76c198cda145e6ab1d117eebb09506e
1ac3d64a7ec42565706b807646b80371fafbb00062b4cc8e5a87424d006993fbf4ff3965adf04b6de23d827c2a5cdd2fc6d7e9cc59603bc06653698ee93a71da
fa68f365a2a9a9bbc36608cb6cd6e49ebfffa06df6368d8dc0920c8bd1e2ec9d537594d96ba255b28a4ca7d0c69265da7e4fb0c6f85a40dcdb2cb71fe0a18b1f
cdaa385411811e27bfd81d659a09e4b32637e9cac2aa5cea2cecad1ebf804c4b2473511ee33aa3b904d5e08feb485cf595be1dded0b37741f70d49e709d518a7
82d2e7992b7a58af706b807646b803716eccaf694fc8cbd82a6b3ce54a7c1865bbd79caeedb761806a6f9086b6fc6336830a28e9c89842404d5747a08c0fbd42
a286ab8191b3300723abc7bcadb5e55e19f84f473e80c75058d4ae77a413986cbdbb35d97976cf2f5f47ae39e87f5b69e9a96117b17fb9d61bbca63caa201d95
cdaa385411811e27bfd81d659a09e4b32637e9cac2aa5cea2cecad1ebf804c4b2473511ee33aa3b904d5e08feb485cf595be1dded0b37741f70d49e709d518a7
9d3782a54af54f6d706b807646b80371989ff71a450f2d4f04c46ff96d13d824ce5ec34e6f8ad1caf93f7b40a8e2bd31d4f8ffff932175e8766281cdbdda4bf0
54653036f112a7e5706b807646b80371989ff71a450f2d4f43ff7de80bac908e0b2915792e5120cdfb73a183a33c1636fa5c51fb57f67208391951252f874b80
f28257b2a3730294706b807646b80371a847f3fb487c186c2e10b6f40aa50ec7d607087dcfdaea29aef99e475c021daedbdec439e06d41106b40e7a4b1b52d37
a5d158a0fc11634f706b807646b8037180a93b86ccc5ef96dcdb6b3481be0e893c0a87748563a10819f84f473e80c75058d4ae77a413986c164b6654813268f2
6dcc2999c2dfe559706b807646b80371989ff71a450f2d4faccc1413efbd7221320519e3e0587008aef99e475c021daedbdec439e06d41106b40e7a4b1b52d37
e9f419af62bfe95ebc27f931268b4061080dbdc2111b05ac604cf42e15ed1a70ce5ec34e6f8ad1cac13ffc8b6ae5cb2e4c21dace8c0b77c7c5edc8eda06110ea
5d078000650a8fa5907b99823f1386611647afe0495b1ace45b47fa4a900dd80cb2bf4310c3807edaef99e475c021daedbdec439e06d41106b40e7a4b1b52d37
a3ce589fda26bc39706b807646b80371989ff71a450f2d4f92db5467decb5e577eb1547bdfb9fe93a147194f3a3bf6c03a7afb3043696a91f546a96cc6cd9230
69ff18044fae7c89706b807646b803712a6b3ce54a7c1865150a1d6731f530eccddf1b68ca30546aabe0d302f64b885c833208a84e33e31d3b28cba02fa15565
e9f419af62bfe95ecc0121b5e20e2076080dbdc2111b05acde91212396735d2ace5ec34e6f8ad1caf93f7b40a8e2bd3108c0f85e1bde808a4cf705d5d584b10c
0a74212461f65cb976d50cd002ed44083e433ab1299f423f6954020319aab50f52f49c2bf1a5d2f4db30dee11f0db97146311df31d1af9d81a0d2edd8a917f58
bc8ee2299b220803beda7935c8aeca8d90d894e251243331da537c18df85a88cabe0d302f64b885c833208a84e33e31da249ff92177bca47767eb3ada8bf0209
5aa875be979324eb706b807646b803717dcd3f16f2f4a72c4f9e87021f8736339dc49094d5d0f85c19f84f473e80c75058d4ae77a413986c164b6654813268f2
b67df0d3ab862a12706b807646b80371a847f3fb487c186c7546fb5c8c4298ecd607087dcfdaea29aef99e475c021daedbdec439e06d41106b40e7a4b1b52d37
560bc4dfcba57a2c1b335ff6669122156e7c4bdf8b04a5238492e52ca99071374791d9b7e0db60db67824ca0788a95e7445e85612d4df7538ff05a55a908034f
5f41a7a4794b53672c4cbab029189320d042b92eba138a7c9f7df7e1d8537137dc26028ef70590f4cf5e9389f2a48e3c04d5e08feb485cf54ecb6937ef3e15a9
abc05a84349f7fe526c880f485e2ca342a3c106b023313d28ada37d8d5c7cf523d6feedeaf07bff2aea6208b1fce888110d934b0be4484bbecef15e38fc4b6c7
2f646e0e8d7ca9fb860341bb47536c89d3c6f4cd3b9e53669f7df7e1d853713798709113e7ea04d2cf5e9389f2a48e3c04d5e08feb485cf54ecb6937ef3e15a9
3b59b36ad64eb586dc5a1b22284dea7ff796966c02b7324c02bcbc7c126628a28c0fab00abef36a9445e85612d4df7530e2d1b4aa74704b3b09a97ac043ca9e2
93d3808648446fd760c210771409cb2ee0b5dbf27fe7bf8f28012d945d685fb41a5fda8e06c24aed19f84f473e80c75058d4ae77a413986c164b6654813268f2
3d438685e8d81df0dc171ccd3489847ae0b5dbf27fe7bf8ff5eb8214881fcb5247c3a4c9d25bc19d79a2aaa4ddba0d9952f49c2bf1a5d2f44b385f4d954e863a
b0eb42ca922cce592fbfcc2b872ff94601544361d34b74c3749d13634498f34b68c3b9926e0df71c666e0159dc63b9a90733018bb86853514549675fbefb5cdc
878ea891db46c1cd9b17b472ccd6ffe73d6feedeaf07bff2aea6208b1fce888110d934b0be4484bb74a417b9c2613570d94d38fcd43b6433d21d5c35e7e4e600
a010d171e62e6bf0aef99e475c021daedbdec439e06d4110544ec97afa616783c7e7a21d90b404c24078ed5aeb4f71712da9e8d35ab5caa1226a5d6ea61396c2
9afa1f10a7f457ea15f60e4ce62d5ce4268ffed78a3448457725dab847e703f63d1e66e16b42006a3d6feedeaf07bff2aea6208b1fce888138205e91a00a68ec
e0bee0f3fadd672460c210771409cb2ee0b5dbf27fe7bf8f1f2fb368fccc6be125d40f775a64a0940cafcb7cfe652d94661c6c5a6c3f664ff546a96cc6cd9230
705d459f50f7a08c15f60e4ce62d5ce450328f117d4923488f71e7553e8063983ecfb4feaf868f20abe0d302f64b885c833208a84e33e31d3b28cba02fa15565
b90e0c5fe970b38760c210771409cb2e9bb0d004119ec15e777d4715d3c53dd141d49fca179af79dbaee13068f3f98a99afcf3acd5d40fc4a4d336c638dba4c3
48a94d11d238250fc83805c2174809e865b6609119040190420b9c924e2d614bd7d81d9271ce0d8ec01d47a1aa57878852f49c2bf1a5d2f44b385f4d954e863a
bedb4c285028d3890abfc569c2f155648a39127aa9f8cf3378b54ce720b1001e49a68f8907b4eefc8895a73e30cdf4e1bfffa06df6368d8d51a57791373da846
062e5f2e0baf1b671b335ff666912215f75aa0cc40f2e4a7a434cb3c571aa35fcf8e67772046bd39a15c6eef6af2c72e694ed948a38ce2035f618a835ee89c6c
615a28c46d72374094fbbbfac28a5c5c164c9e232793a5b063d9d49533be6e3aaef99e475c021daedbdec439e06d4110544ec97afa616783dd846b5cace5dd66
6a30044ee8eb8b671b335ff6669122150e68485587411f9a8492e52ca99071375bebda023e3dc91e71802e7452fd18b25e22f9a2b30b182f391951252f874b80
717cdf892ff6b6ffdaf99020d108932b3357e1136fb29bbd661c6c5a6c3f664f04d5e08feb485cf595be1dded0b377418dd3b706b35e8c787816963dd8a7643f
c43ca65fb3926f3ba60fd3951de4fe94e0b5dbf27fe7bf8f21602b10c0cff4358c0fab00abef36a9445e85612d4df7530e2d1b4aa74704b3b09a97ac043ca9e2
2cfd781695004e38e540552e7573e568105dbcb0d0df9d81d99604f256075295b60e93de2dc2ed1d2408eb03932f6c54eca477b72c27a1e49559b187edc56f27
c343eb4092c22d41b1c7c334b7319ef5aef99e475c021daedbdec439e06d4110544ec97afa616783c7e7a21d90b404c24078ed5aeb4f7171d9aba9b5e26e99d1
62de40c9486cbee406c0ad11a8a16d093010e01794bfa60b9778e09114237562a8e82257c128c270afcdba7124294cd004d5e08feb485cf54ecb6937ef3e15a9
$CDNENCFINISH
.ENDS TLV70233_TRANS
*$
.subckt TLV70233_F1 1 2 3 4  
$CDNENCSTART
eee8c5c7a2bc4b01f045f303678664e7916da0bae22e8cb0bba041dd67c69ce448ea70148a9ac1670c8926c1ac5057c8ccfcd77bf87ca9dcb1d117eebb09506e
ae601cf82fbefc0c31820e631d1d1d74872d6da6e74e75ee52f49c2bf1a5d2f4db30dee11f0db97146311df31d1af9d85332d2fa3db672ec38e17388db57de5d
969b68e4450fa8bd6f31076d2b37e96bec1dbf48f1a07bfb19f84f473e80c75058d4ae77a413986cbdbb35d97976cf2f5f47ae39e87f5b699997a1ebd5d3b989
$CDNENCFINISH
.ends TLV70233_F1
*$
.subckt TLV70233_S6 1 2 3 4  
$CDNENCSTART
eee8c5c7a2bc4b01f045f303678664e7916da0bae22e8cb0bba041dd67c69ce448ea70148a9ac1670c8926c1ac5057c8ccfcd77bf87ca9dcb1d117eebb09506e
984f32a07473fb7c31820e631d1d1d74ef1e214e65ee9ca652f49c2bf1a5d2f4db30dee11f0db97146311df31d1af9d85332d2fa3db672ec38e17388db57de5d
dd1eb1f7fd6960a06f31076d2b37e96b3f1030bbca8576c319f84f473e80c75058d4ae77a413986cbdbb35d97976cf2f5f47ae39e87f5b699997a1ebd5d3b989
1e7e75f62a07f7b1bbcb463bf6330e44dd4a5f3ed5996b330ffb76e2ddf4497b2596d65fe0df484d8e5e1fe45d9e77f16da4757f7911f35399ef05dcb2404e62
$CDNENCFINISH
.ends TLV70233_S6
*$
.subckt TLV70233_H1 1 2 3 4  
$CDNENCSTART
eee8c5c7a2bc4b01f045f303678664e7916da0bae22e8cb0bba041dd67c69ce448ea70148a9ac1670c8926c1ac5057c8ccfcd77bf87ca9dcb1d117eebb09506e
2abee8045ea05af631820e631d1d1d745631fdfe31f523f952f49c2bf1a5d2f4db30dee11f0db97146311df31d1af9d85332d2fa3db672ec38e17388db57de5d
32ee4cbc53dd07ef6f31076d2b37e96bec1dbf48f1a07bfb19f84f473e80c75058d4ae77a413986cbdbb35d97976cf2f5f47ae39e87f5b699997a1ebd5d3b989
$CDNENCFINISH
.ends TLV70233_H1
*$
.subckt TLV70233_S1 1 2 3 4  
$CDNENCSTART
eee8c5c7a2bc4b01f045f303678664e7916da0bae22e8cb0bba041dd67c69ce448ea70148a9ac1670c8926c1ac5057c8ccfcd77bf87ca9dcb1d117eebb09506e
44f117741689d59131820e631d1d1d749e35700c7913e93952f49c2bf1a5d2f4db30dee11f0db97146311df31d1af9d85332d2fa3db672ec38e17388db57de5d
3c76beba9b808c126f31076d2b37e96b3f1030bbca8576c319f84f473e80c75058d4ae77a413986cbdbb35d97976cf2f5f47ae39e87f5b699997a1ebd5d3b989
1e7e75f62a07f7b1bbcb463bf6330e447b3ba2fd65dbf9050ffb76e2ddf4497bf8c82269d01ef65b088a7a198d4d42bbbedd4f0e0429e49ff47cd95c1847d498
$CDNENCFINISH
.ends TLV70233_S1
*$
*********************************///////////
.SUBCKT COMPHYS_BASIC_GEN INP INM HYS OUT PARAMS: VDD=1 VSS=0 VTHRESH=0.5	
$CDNENCSTART
eee8c5c7a2bc4b01f045f303678664e7916da0bae22e8cb0bba041dd67c69ce448ea70148a9ac1670c8926c1ac5057c8ccfcd77bf87ca9dcb1d117eebb09506e
9132b7121104d4358be44c41ab888f41b6e3a1568843d86723f363b602b1468caea6208b1fce888110d934b0be4484bb74a417b9c2613570f941af388eaa0d50
70d49a25931fcad5af5f0f227a33dfc56b574213c15e8d8904d73209bd6cb354e07469d76c73f504727902e71a3e75d8bb77e20fe987edd8d38aff4e12555a5d
d1579de13894cc53749d13634498f34b2814ec203481f38f6485690991963efc688dc2cfc32ec3a9609956094a2f05290f82827fc36822f08b3124f4fe24c243
c985c90e830fff9457e2c5aa80851370bfffa06df6368d8dc0920c8bd1e2ec9d537594d96ba255b28a4ca7d0c69265da7e4fb0c6f85a40dcdb2cb71fe0a18b1f
1fdb31c906bbcd7763285b290822439104d5e08feb485cf595be1dded0b377418dd3b706b35e8c7834d2a4aa5f795d6ee3a2fead11b10c7d21d6456f0317efc7
13142c038a62aa150aa66cfdd7abddd752f49c2bf1a5d2f4db30dee11f0db97146311df31d1af9d85332d2fa3db672eccf1e0f9d66baf8e7cc6ab89689f8f660
$CDNENCFINISH
.ENDS COMPHYS_BASIC_GEN
*$
.subckt d_d 1 2
$CDNENCSTART
eee8c5c7a2bc4b01f045f303678664e7916da0bae22e8cb0bba041dd67c69ce448ea70148a9ac1670c8926c1ac5057c8ccfcd77bf87ca9dcb1d117eebb09506e
1580a2664af5c9b79ba351c972f8011b04d5e08feb485cf595be1dded0b377418dd3b706b35e8c7834d2a4aa5f795d6ee3a2fead11b10c7d21d6456f0317efc7
0697746efb67a3a37eef396dcc27bc3719f84f473e80c75058d4ae77a413986cbdbb35d97976cf2f5f47ae39e87f5b69e9a96117b17fb9d61bbca63caa201d95
f7a854a98d732f8b65b706867a9136e619f84f473e80c75058d4ae77a413986cbdbb35d97976cf2f5f47ae39e87f5b69e9a96117b17fb9d61bbca63caa201d95
017be2304022735923f363b602b1468caea6208b1fce888110d934b0be4484bb74a417b9c2613570d94d38fcd43b643327f02c8d59f28fc84ea9891707bca9c1
39c84b0c9f72e0078e024cbd033ee0af19f84f473e80c75058d4ae77a413986cbdbb35d97976cf2f5f47ae39e87f5b69e9a96117b17fb9d61bbca63caa201d95
$CDNENCFINISH
.ends d_d
*$
